/*--------------------------------*- C++ -*----------------------------------*\
| =========                 |                                                 |
| \\      /  F ield         | OpenFOAM: The Open Source CFD Toolbox           |
|  \\    /   O peration     | Version:  3.0.0                                 |
|   \\  /    A nd           | Web:      www.OpenFOAM.org                      |
|    \\/     M anipulation  |                                                 |
\*---------------------------------------------------------------------------*/
FoamFile
{
    version     2.0;
    format      ascii;
    class       dictionary;
    location    "constant";
    object      thermophysicalProperties.liquid;
}
// * * * * * * * * * * * * * * * * * * * * * * * * * * * * * * * * * * * * * //

#include "globalVars"

PrMixLiq  #codeStream 
{ 
    code 
    #{ 
        os  << $CpMixLiq * $muMixLiq / $kThermLiq; 
    #}; 
}; 

thermoType
{
    type            heRhoThermo;
    mixture         multiComponentMixture;
    transport       const;
    thermo          hConst;
    equationOfState rhoConst;
    specie          specie;
    energy          sensibleInternalEnergy;
}

species
(
    nbut
    CO2
);

inertSpecie nbut;

"(mixture|nbut)"
{
    specie
    {
        nMoles      1;
        molWeight   74.12;
    }
    equationOfState
    {
        rho        $rho0MixLiq;
    }
    thermodynamics
    {
        Hf          -15857343;
        Cp          $CpMixLiq;
    }
    transport
    {
        mu          $muMixLiq;
        Pr          $PrMixLiq;
    }
}

CO2
{
    specie
    {
        nMoles      1;
        molWeight   44;
    }
    equationOfState
    {
        rho        $rho0MixLiq;
    }
    thermodynamics
    {
        Hf          -9402451;
        Cp          $CpMixLiq;
    }
    transport
    {
        mu          $muMixLiq;
        Pr          $PrMixLiq;
    }
}

// ************************************************************************* //
