/*--------------------------------*- C++ -*----------------------------------*\
  =========                 |
  \\      /  F ield         | OpenFOAM: The Open Source CFD Toolbox
   \\    /   O peration     | Website:  https://openfoam.org
    \\  /    A nd           | Version:  9
     \\/     M anipulation  |
\*---------------------------------------------------------------------------*/
FoamFile
{
    format      ascii;
    class       dictionary;
    object      phaseProperties;
}
// * * * * * * * * * * * * * * * * * * * * * * * * * * * * * * * * * * * * * //

#include "$FOAM_CASE/constant/globalVars"

//type populationBalanceMultiphaseSystem;

type interfaceCompositionPhaseChangePopulationBalanceMultiphaseSystem;

phases (gas liquid);

populationBalances (bubbles);

gas
{
    type            multiComponentPhaseModel;//pureIsothermalPhaseModel;

    diameterModel   velocityGroup;

    velocityGroupCoeffs
    {
        populationBalance    bubbles;

        shapeModel           spherical;

        sizeGroups
        (
            f1 {dSph  1e-3; value 0.0;}
            f2 {dSph  1.5e-3; value 0.0;}
            f3 {dSph  2e-3; value 1.0;}
            f4 {dSph  2.5e-3; value 0.0;}
            f5 {dSph  3e-3; value 0.0;}
            f6 {dSph  3.5e-3; value 0.0;}
            f7 {dSph  4e-3; value 0.0;}
            f8 {dSph  4.5e-3; value 0.0;}
            f9 {dSph  5e-3; value 0.0;}
            f10 {dSph  5.5e-3; value 0.0;}
            f11 {dSph  6e-3; value 0.0;}
            f12 {dSph  6.5e-3; value 0.0;}
            f13 {dSph  7e-3; value 0.0;}
            f14 {dSph  7.5e-3; value 0.0;}
            f15 {dSph  8e-3; value 0.0;}
            f16 {dSph  8.5e-3; value 0.0;}
            f17 {dSph  9e-3; value 0.0;}
            f18 {dSph  9.5e-3; value 0.0;}
            f19 {dSph  10e-3; value 0.0;}
            f20 {dSph  10.5e-3; value 0.0;}
            f21 {dSph  11e-3; value 0.0;}
        );
    }

    residualAlpha   1e-6;
}

liquid
{
    type            multiComponentPhaseModel;//pureIsothermalPhaseModel;

    diameterModel   constant;

    constantCoeffs
    {
        d               1e-4;
    }
    Sc   #codeStream 
    { 
        code 
        #{ 
            os  << ($LeLiqMix * $CpMixLiq * $muMixLiq / $kThermLiq); 
        #}; 
    }; 

    residualAlpha   1e-6;
}

populationBalanceCoeffs
{
    bubbles
    {
        continuousPhase liquid;

        coalescenceModels
        (
            LehrMilliesMewes_limited{
               uCrit 0.08;
               alphaMax 0.6;
               height_lim $LiqHt_limit;
               height_dir 1;
            }
        );

        binaryBreakupModels
        (
        //    LehrMilliesMewes{}
        );

        breakupModels
        (
            Laakkonen_limited{
                daughterSizeDistributionModel Laakkonen;
                height_lim $LiqHt_limit;
                height_dir 1;
            }
        );

        driftModels
        (
            densityChange{}
        );

        nucleationModels
        ();
    }
}

blending
{
    default
    {   
        type            linear;
        minFullyContinuousAlpha.gas 0.7;
        minPartlyContinuousAlpha.gas 0.3;
        minFullyContinuousAlpha.liquid 0.7;
        minPartlyContinuousAlpha.liquid 0.3;
    }
    heatTransfer
    {   
        type            linear;
        minFullyContinuousAlpha.gas 1;
        minPartlyContinuousAlpha.gas 0;
        minFullyContinuousAlpha.liquid 1;
        minPartlyContinuousAlpha.liquid 0;
    }
    massTransfer
    {
        $heatTransfer;
    }
}

surfaceTension
(
    (gas and liquid)
    {
        type            constant;
        sigma           $sigmaLiq;
    }
);

interfaceCompression
();

aspectRatio
(
    (gas in liquid)
    {
        type            Wellek;
    }
);

drag
(
    (gas in liquid)
    {
        type           Grace_limited;
        residualRe 1e-3;
        height_lim $LiqHt_limit;
        height_dir 1;
        swarmCorrection
        {
            type        none;
        }
    }
);

virtualMass
(
    (gas in liquid)
    {
        type            constantCoefficient;
        Cvm             0.5;
    }
);

// heatTransfer
// ();

heatTransfer.gas
(
    (gas in liquid)
    {
        type spherical;
        residualAlpha 1e-4;
    }

    (liquid in gas)
    {
        type RanzMarshall;
        residualAlpha 1e-4;
    }
);

heatTransfer.liquid
(
    (gas in liquid)
    {
        type RanzMarshall;
        residualAlpha 1e-4;
    }

    (liquid in gas)
    {
        type spherical;
        residualAlpha 1e-4;
    }
);

interfaceComposition.gas
();

interfaceComposition.liquid
(
    (liquid and gas)
    {
        type Henry_limited;
        species ( CO2 CO H2);
        k ( $He_CO2 $He_CO $He_H2);
        Le $LeLiqMix;
        height_lim $LiqHt_limit;
        height_dir 1;
    }
);

diffusiveMassTransfer.gas
();

diffusiveMassTransfer.liquid
(
    (gas in liquid)
    {
        type Higbie_limited;
        Le $LeLiqMix;
        height_lim $LiqHt_limit;
        height_dir 1;
    }

    (liquid in gas)
    {
        type spherical_limited;
        Le 1.0; //not used for spherical
        height_lim $LiqHt_limit;
        height_dir 1;
    }
);

phaseTransfer
();

lift
(
    (gas in liquid)
    {
        type            wallDamped;

        wallDamping
        {
            type        cosine;
            Cd          3.0;
        }

        lift
        {
            type        Tomiyama_limited;
            height_lim $LiqHt_limit;
            height_dir 1;

            swarmCorrection
            {
                type    none;
            }
        }
    }

);

wallLubrication
(
    (gas in liquid)
    {
        type            Antal_limited;
        Cw1             -0.01;
        Cw2             0.05;
        height_lim $LiqHt_limit;
        height_dir 1;
    }
);

turbulentDispersion
(
    (gas in liquid)
    {
        type            Burns_limited;
        sigma           0.9;
        height_lim $LiqHt_limit;
        height_dir 1;
    }
);

// ************************************************************************* //
